sistemas/nordicoB.pwf
TITU
Nordic32_Point_B                                                                
DCTE
(Mn) ( Val) (Mn) ( Val) (Mn) ( Val) (Mn) ( Val) (Mn) ( Val) (Mn) ( Val) 
BASE   100. DASE   100. TEPA   1E-4 EXST     .4 TETP     5. TBPA     5.
TLPP     1. TEPR   1E-4 QLST     .4 TLPR     .1 TLPQ     2. TSBZ    .01
TSBA     5. ASTP    .05 VSTP     5. TLVC     .5 TLTC    .01 TSFR  .1E-7
ZMAX   500. TLPV     .5 VDVM   200. VDVN    40. TUDC   .001 TADC    .01
PGER    30. TPST     .2 VFLD    70. ZMIN   .001 HIST    470 LFIT     10
ACIT     30 LFCV      1 DCIT     10 VSIT     10 LPIT     50 LFLP     10
PDIT     10 LCRT     96 LPRT     60 CSTP     5. ASDC     1.
ICIT     30 DMAX      5 FDIV     2. ICMN    .05 VART     5. TSTP     33
ICMV     .5 APAS    90. CPAR    70. VAVT     2. VAVF     5. VMVF    15.
VPVT     2. VPVF     5. VPMF    10. VSVF    20. VINF     1. VSUP     1.
TLSI     0. NDIR    20. STTR     5. TRPT   100. STIR     1. BFPO     1.
99999
DBAR
(Num)OETGb(   nome   )Gl( V)( A)( Pg)( Qg)( Qn)( Qm)(Bc  )( Pl)( Ql)( Sh)Are(Vf)M(1)(2)(3)(4)(5)(6)(7)(8)(9)(10
    1 L LD BARRA-1      1000-46.                           600.148.2       21000                                   
    2 L LD BARRA-2      1001-33.                           330.  71.       21000                                   
    3 L LD BARRA-3       997-42.                           260. 83.8       21000                                   
    4 L LD BARRA-4      1000-33.                           840. 252.       21000                                   
    5 L LD BARRA-5       996-35.                           720.190.4       21000                                   
   11 L LD BARRA-11     10007.68                           200. 68.8       11000                                   
   12 L LD BARRA-12     100010.8                           300. 83.8       11000                                   
   13 L LD BARRA-13     100015.4                           100. 34.4       11000                                   
   22 L LD BARRA-22     1000.692                           280. 79.9       11000                                   
   31 L LD BARRA-31     1000-10.                           100. 24.7       11000                                   
   32 L LD BARRA-32     1000 1.9                           200. 39.6       11000                                   
   41 L LD BARRA-41     1000-23.                           540.131.4       21000                                   
   42 L LD BARRA-42     1000-25.                           400.127.4       21000                                   
   43 L LD BARRA-43     1000-30.                           900.254.6       21000                                   
   46 L LD BARRA-46     1000-30.                           700.211.8       21000                                   
   47 L LD BARRA-47     1000-26.                           100.  44.       21000                                   
   51 L LD BARRA-51     1000-28.                           800.258.2       21000                                   
   61 L LD BARRA-61     1000-25.                           500.122.5       31000                                   
   62 L LD BARRA-62     1000-21.                           300. 83.8       31000                                   
   63 L LD BARRA-63     1000-17.                           590.264.6       31000                                   
   71 L LD BARRA-71     1000 -.4                           300. 83.8       41000                                   
   72 L LD BARRA-72     1000-5.4                          2000.396.1       41000                                   
   81 L1GE BARRA-81     106819.2 600. -22.-800. 800.                       11000                                   
   82 L1GE BARRA-82     1057 22. 300.-18.8-600. 600.                       11000                                   
   83 L1GE BARRA-83     1060 27. 550.-7.87-700. 700.                       11000                                   
   84 L1GE BARRA-84     103429.5 400.-15.4-600. 600.                       11000                                   
   85 L1GE BARRA-85     10299.85 200.-26.9-250. 250.                       11000                                   
   86 L1GE BARRA-86     1008-21. 360.133.2-400. 400.                       21000                                   
   87 L1GE BARRA-87     1014-31. 180.51.33-200. 200.                       21000                                   
   88 L1GE BARRA-88     105011.7 750. 130.-850. 850.                       11000                                   
   89 L1GE BARRA-89      99915.4668.538.11-10001000.                       11000                                   
  810 L1GE BARRA-810    101617.6 600.154.8-800. 800.                       11000                                   
  811 L1GE BARRA-811    1021-1.4 250.-74.1-300. 300.                       11000                                   
  812 L1GE BARRA-812    1020-2.8 310.-55.7-350. 350.                       11000                                   
  813 L1GE BARRA-813    1017-21.   0.-118.-300. 300.                       21000                                   
  814 L1GE BARRA-814    1045-15. 630.36.34-700. 700.                       21000                                   
  815 L1GE BARRA-815    1046-16. 540.74.99-700. 700.                       21000                                   
  816 L1GE BARRA-816    1053-19. 600.59.73-700. 700.                       21000                                   
  817 L1GE BARRA-817    1009-11. 530.-23.5-600. 600.                       31000                                   
  818 L1GE BARRA-818    1031-7.1 530. 111.-12001200.                       31000                                   
  819 L1GE BARRA-819    10307.42 300.116.5-500. 500.                       41000                                   
  820 L2GE BARRA-820    1019  0.1375.377.7-45004500.                       41000                                   
 1011 L 01 BARRA-1011   108610.5                                           11000                                   
 1012 L 01 BARRA-1012   107713.6                                           11000                                   
 1013 L 01 BARRA-1013   106418.1                                           11000                                   
 1014 L 01 BARRA-1014   1067 21.                                           11000                                   
 1021 L 01 BARRA-1021   104224.2                                           11000                                   
 1022 L 01 BARRA-1022   11043.48                                      50.  11000                                   
 1041 L 01 BARRA-1041   1018-43.                                     250.  21000                                   
 1042 L 01 BARRA-1042   1016-29.                                           21000                                   
 1043 L 01 BARRA-1043   1034-39.                                     200.  21000                                   
 1044 L 01 BARRA-1044   1000-31.                                     200.  21011                                   
 1045 L 01 BARRA-1045   1000-32.                                     200.  21015                                   
 2031 L 02 BARRA-2031   1086-7.4                                           11000                                   
 2032 L 02 BARRA-2032   1088 4.7                                           11000                                   
 4011 L 04 BARRA-4011   10489.63                                           11000                                   
 4012 L 04 BARRA-4012   104311.2                                    -100.  11000                                   
 4021 L 04 BARRA-4021   1118 -8.                                           11000                                   
 4022 L 04 BARRA-4022   10551.84                                           11000                                   
 4031 L 04 BARRA-4031   1104-9.9                                           11000                                   
 4032 L 04 BARRA-4032   1121-14.                                           11000                                   
 4041 L 04 BARRA-4041   1109-21.                                     200.  21000                                   
 4042 L 04 BARRA-4042   1098-22.                                           21000                                   
 4043 L 04 BARRA-4043   1087-27.                                     200.  21000                                   
 4044 L 04 BARRA-4044   1099-27.                                           21000                                   
 4045 L 04 BARRA-4045   1106-29.                                           21000                                   
 4046 L 04 BARRA-4046   1079-28.                                     100.  21000                                   
 4047 L 04 BARRA-4047   1088-23.                                           21000                                   
 4051 L 04 BARRA-4051   1100-25.                                     100.  21000                                   
 4061 L 04 BARRA-4061   1071-22.                                           31000                                   
 4062 L 04 BARRA-4062   1074-18.                                           31000                                   
 4063 L 04 BARRA-4063   1063-14.                                           31000                                   
 4071 L 04 BARRA-4071   1050 2.4                                    -400.  41000                                   
 4072 L 04 BARRA-4072   1058-2.6                                           41000                                   
 8152 L1GE BARRA-815b   1046-16. 540.74.99-700. 700.                       21000                                   
 8162 L1GE BARRA-816b   1053-19. 600.59.73-700. 700.                       21000                                   
 8182 L1GE BARRA-818b   1031-7.1 530. 111.-12001200.                       31000                                   
99999
DLIN
(De )d O d(Pa )NcEP ( R% )( X% )(Mvar)(Tap)(Tmn)(Tmx)(Phs)(Bc  )(Cn)(Ce)Ns(Cq)(1)(2)(3)(4)(5)(6)(7)(8)(9)(10
 1011        11 1            2.5       1.06  .88  1.2        -11400.480.33400.                                
 1011      1013 1       1.    7.  1.38                          350.420.  350.                                
 1011      1013 2       1.    7.  1.38                          350.420.  350.                                
 1012        12 1          1.667       1.06  .88  1.2        -12600.720.33600.                                
 1012        81 1          1.875         1.                     800.960.  800.                                
 1012      1014 1    1.402    9.  1.81                          350.420.  350.                                
 1012      1014 2    1.402    9.  1.81                          350.420.  350.                                
 1013        13 1             5.       1.04  .88  1.2        -13200.240.33200.                                
 1013        82 1            2.5         1.                     600.720.  600.                                
 1013      1014 1     .698    5.  1.01                          350.420.  350.                                
 1013      1014 2     .698    5.  1.01                          350.420.  350.                                
 1014        83 1          2.143         1.                     700.840.  700.                                
 1021        84 1            2.5         1.                     600.720.  600.                                
 1021      1022 1       3.   20.  3.03                          350.420.  350.                                
 1021      1022 2       3.   20.  3.03                          350.420.  350.                                
 1022        22 1          1.786       1.08  .88  1.2        -22560.672.33560.                                
 1022        85 1             6.       1.05                     250.300.  250.                                
 1041         1 1           .833       1.01  .88  1.2         -112001440331200                                
 1041      1043 1       1.    6.  1.22                          350.420.  350.                                
 1041      1043 2       1.    6.  1.22                          350.420.  350.                                
 1041      1045 1    1.497   12.   2.5                          350.420.  350.                                
 1041      1045 2    1.497   12.   2.5                          350.420.  350.                                
 1042         2 1          1.667       1.01  .88  1.2         -2600.720.33600.                                
 1042        86 1           3.75       1.05                     400.480.  400.                                
 1042      1044 1    3.799   28.    6.                          350.420.  350.                                
 1042      1044 2    3.799   28.    6.                          350.420.  350.                                
 1042      1045 1       5.   30.    6.                          350.420.  350.                                
 1043         3 1          2.174       1.02  .88  1.2         -3460.552.33460.                                
 1043        87 1            7.5       1.05                     200.240.  200.                                
 1043      1044 1       1.    8.  1.59                          350.420.  350.                                
 1043      1044 2       1.    8.  1.59                          350.420.  350.                                
 1044         4 1           .625         1.  .88  1.2         -416001920331600                                
 1045         5 1           .714         1.  .88  1.2         -514001680331400                                
 2031        31 1             5.       1.07  .88  1.2        -31200.240.33200.                                
 2031      2032 1      1.2    9.  1.52                          500.600.  500.                                
 2031      2032 2      1.2    9.  1.52                          500.600.  500.                                
 2032        32 1            2.5       1.07  .88  1.2        -32400.480.33400.                                
 2032        88 1          1.765       1.05                     850.1020  850.                                
 4011        89 1            1.5       1.05                     10001200  1000                                
 4011      1011 1             .8        .95                     12501500  1250                                
 4011      4012 1       .1    .8 20.11                          14001680  1400                                
 4011      4021 1       .6    6.179.95                          14001680  1400                                
 4011      4022 1       .4    4.120.13                          14001680  1400                                
 4011      4071 1       .5   4.5140.24                          14001680  1400                                
 4012       810 1          1.875       1.05                     800.960.  800.                                
 4012      1012 1             .8        .95                     12501500  1250                                
 4012      4022 1       .4   3.5105.06                          14001680  1400                                
 4012      4071 1       .5    5.149.79                          14001680  1400                                
 4021       811 1             5.       1.05                     300.360.  300.                                
 4021      4032 1       .4    4.120.13                          14001680  1400                                
 4021      4042 1       1.    6.300.09                          14001680  1400                                
 4022      1022 1            1.2        .93                     833.1000  833.                                
 4022      4031 1       .4    4.120.13                          14001680  1400                                
 4022      4031 2       .4    4.120.13                          14001680  1400                                
 4031       812 1          4.286       1.05                     350.420.  350.                                
 4031      2031 1            1.2         1.                     833.1000  833.                                
 4031      4032 1       .1    1. 30.16                          14001680  1400                                
 4031      4041 1       .6    4.239.77                          14001680  1400                                
 4031      4041 2       .6    4.239.77                          14001680  1400                                
 4032      4042 1       1.    4.200.06                          14001680  1400                                
 4032      4044 1       .6    5.239.77                          14001680  1400                                
 4041        41 1           .926       1.09  .88  1.2        -4110801296331080                                
 4041       813 1          3.333       1.05                     300.360.  300.                                
 4041      4044 1       .3    3. 89.97                          14001680  1400                                
 4041      4061 1       .6   4.5130.19                          14001680  1400                                
 4042        42 1           1.25       1.08  .88  1.2        -42800.960.33800.                                
 4042       814 1          2.143       1.05                     700.840.  700.                                
 4042      4043 1       .2   1.5 49.76                          14001680  1400                                
 4042      4044 1       .2    2. 59.82                          14001680  1400                                
 4043        43 1           .556       1.07  .88  1.2        -4318002160331800                                
 4043      4044 1       .1    1. 30.16                          14001680  1400                                
 4043      4046 1       .1    1. 30.16                          14001680  1400                                
 4043      4047 1       .2    2. 59.82                          14001680  1400                                
 4044      1044 1             1.       1.08  .87 1.11      -104410001200251000                                
 4044      1044 2             1.       1.08  .87 1.11      -104410001200251000                                
 4044      4045 1       .2    2. 59.82                          14001680  1400                                
 4044      4045 2       .2    2. 59.82                          14001680  1400                                
 4045      1045 1             1.       1.09  .87 1.11      -104510001200251000                                
 4045      1045 2             1.       1.09  .87 1.11      -104510001200251000                                
 4045      4051 1       .4    4.120.13                          14001680  1400                                
 4045      4051 2       .4    4.120.13                          14001680  1400                                
 4045      4062 1      1.1    8.239.77                          14001680  1400                                
 4046        46 1           .714       1.06  .88  1.2        -4614001680331400                                
 4046      4047 1       .1   1.5 49.76                          14001680  1400                                
 4047        47 1             5.       1.06  .88  1.2        -47200.240.33200.                                
 4047       815 1            2.5       1.05                     600.720.  600.                                
 4047      8152 1            2.5       1.05                     600.720.  600.                                
 4051        51 1           .625       1.08  .88  1.2        -5116001920331600                                
 4051       816 1          2.143       1.05                     700.840.  700.                                
 4051      8162 1          2.143       1.05                     700.840.  700.                                
 4061        61 1             1.       1.05  .88  1.2        -6110001200331000                                
 4061      4062 1       .2    2. 59.82                          14001680  1400                                
 4062        62 1          1.667       1.05  .88  1.2        -62600.720.33600.                                
 4062       817 1            2.5       1.05                     600.720.  600.                                
 4062      4063 1       .3    3. 89.97                          14001680  1400                                
 4062      4063 2       .3    3. 89.97                          14001680  1400                                
 4063        63 1           .847       1.03  .88  1.2        -6311801416331180                                
 4063       818 1            2.5       1.05                     600.720.  600.                                
 4063      8182 1            2.5       1.05                     600.720.  600.                                
 4071        71 1          1.667       1.03  .88  1.2        -71600.720.33600.                                
 4071       819 1             3.       1.05                     500.600.  500.                                
 4071      4072 1       .3    3.300.09                          14001680  1400                                
 4071      4072 2       .3    3.300.09                          14001680  1400                                
 4072        72 1            .25       1.05  .88  1.2        -7240004800334000                                
 4072       820 1           .333       1.05                     45005400  4500                                
99999
DGBT
(G ( kV)
04  400.
02  220.
01  130.
LD   20.
GE   15.
99999
EXLF NEWT QLIM
RELA RBAR
FIM